[root]
type=Root
children=system
eventq_index=0
full_system=false
sim_quantum=0
time_sync_enable=false
time_sync_period=100000000000
time_sync_spin_threshold=100000000

[system]
type=System
children=clk_domain cpu00 cpu01 cpu02 cpu03 cpu04 cpu05 cpu06 cpu07 cpu08 cpu09 cpu10 cpu11 cpu12 cpu13 cpu14 cpu15 cpu16 cpu17 cpu18 cpu19 cpu20 cpu21 cpu22 cpu23 cpu24 cpu25 cpu26 cpu27 cpu28 cpu29 cpu30 cpu31 cpu32 cpu33 cpu34 cpu35 cpu36 cpu37 cpu38 cpu39 cpu40 cpu41 cpu42 cpu43 cpu44 cpu45 cpu46 cpu47 cpu48 cpu49 cpu50 cpu51 cpu52 cpu53 cpu54 cpu55 cpu56 cpu57 cpu58 cpu59 cpu60 cpu61 cpu62 cpu63 dvfs_handler mem_ctrls00 mem_ctrls01 mem_ctrls02 mem_ctrls03 mem_ctrls04 mem_ctrls05 mem_ctrls06 mem_ctrls07 mem_ctrls08 mem_ctrls09 mem_ctrls10 mem_ctrls11 mem_ctrls12 mem_ctrls13 mem_ctrls14 mem_ctrls15 redirect_paths0 redirect_paths1 redirect_paths2 ruby sys_port_proxy voltage_domain
cache_line_size=64
eventq_index=0
exit_on_work_items=false
init_param=0
m5ops_base=0
mem_mode=timing
mem_ranges=0:536870912
memories=system.mem_ctrls00 system.mem_ctrls01 system.mem_ctrls02 system.mem_ctrls03 system.mem_ctrls04 system.mem_ctrls05 system.mem_ctrls06 system.mem_ctrls07 system.mem_ctrls08 system.mem_ctrls09 system.mem_ctrls10 system.mem_ctrls11 system.mem_ctrls12 system.mem_ctrls13 system.mem_ctrls14 system.mem_ctrls15
mmap_using_noreserve=false
multi_thread=false
num_work_ids=16
readfile=
redirect_paths=system.redirect_paths0 system.redirect_paths1 system.redirect_paths2
symbolfile=
thermal_components=
thermal_model=Null
work_begin_ckpt_count=0
work_begin_cpu_id_exit=-1
work_begin_exit_count=0
work_cpus_ckpt_count=0
work_end_ckpt_count=0
work_end_exit_count=0
work_item_id=-1
workload=Null
system_port=system.sys_port_proxy.slave[0]

[system.clk_domain]
type=SrcClockDomain
clock=1000
domain_id=-1
eventq_index=0
init_perf_level=0
voltage_domain=system.voltage_domain

[system.cpu00]
type=GarnetSyntheticTraffic
children=power_state
block_offset=6
clk_domain=system.clk_domain
eventq_index=0
inj_rate=0.5
inj_vnet=-1
memory_size=65536
num_dest=16
num_packets_max=-1
power_model=
power_state=system.cpu00.power_state
precision=3
response_limit=5000000
sim_cycles=20000
single_dest=-1
single_sender=-1
system=system
traffic_type=uniform_random
test=system.ruby.l1_cntrl0.sequencer.slave[0]

[system.cpu00.power_state]
type=PowerState
clk_gate_bins=20
clk_gate_max=1000000000000
clk_gate_min=1000
default_state=UNDEFINED
eventq_index=0
leaders=
possible_states=

[system.cpu01]
type=GarnetSyntheticTraffic
children=power_state
block_offset=6
clk_domain=system.clk_domain
eventq_index=0
inj_rate=0.5
inj_vnet=-1
memory_size=65536
num_dest=16
num_packets_max=-1
power_model=
power_state=system.cpu01.power_state
precision=3
response_limit=5000000
sim_cycles=20000
single_dest=-1
single_sender=-1
system=system
traffic_type=uniform_random
test=system.ruby.l1_cntrl1.sequencer.slave[0]

[system.cpu01.power_state]
type=PowerState
clk_gate_bins=20
clk_gate_max=1000000000000
clk_gate_min=1000
default_state=UNDEFINED
eventq_index=0
leaders=
possible_states=

[system.cpu02]
type=GarnetSyntheticTraffic
children=power_state
block_offset=6
clk_domain=system.clk_domain
eventq_index=0
inj_rate=0.5
inj_vnet=-1
memory_size=65536
num_dest=16
num_packets_max=-1
power_model=
power_state=system.cpu02.power_state
precision=3
response_limit=5000000
sim_cycles=20000
single_dest=-1
single_sender=-1
system=system
traffic_type=uniform_random
test=system.ruby.l1_cntrl2.sequencer.slave[0]

[system.cpu02.power_state]
type=PowerState
clk_gate_bins=20
clk_gate_max=1000000000000
clk_gate_min=1000
default_state=UNDEFINED
eventq_index=0
leaders=
possible_states=

[system.cpu03]
type=GarnetSyntheticTraffic
children=power_state
block_offset=6
clk_domain=system.clk_domain
eventq_index=0
inj_rate=0.5
inj_vnet=-1
memory_size=65536
num_dest=16
num_packets_max=-1
power_model=
power_state=system.cpu03.power_state
precision=3
response_limit=5000000
sim_cycles=20000
single_dest=-1
single_sender=-1
system=system
traffic_type=uniform_random
test=system.ruby.l1_cntrl3.sequencer.slave[0]

[system.cpu03.power_state]
type=PowerState
clk_gate_bins=20
clk_gate_max=1000000000000
clk_gate_min=1000
default_state=UNDEFINED
eventq_index=0
leaders=
possible_states=

[system.cpu04]
type=GarnetSyntheticTraffic
children=power_state
block_offset=6
clk_domain=system.clk_domain
eventq_index=0
inj_rate=0.5
inj_vnet=-1
memory_size=65536
num_dest=16
num_packets_max=-1
power_model=
power_state=system.cpu04.power_state
precision=3
response_limit=5000000
sim_cycles=20000
single_dest=-1
single_sender=-1
system=system
traffic_type=uniform_random
test=system.ruby.l1_cntrl4.sequencer.slave[0]

[system.cpu04.power_state]
type=PowerState
clk_gate_bins=20
clk_gate_max=1000000000000
clk_gate_min=1000
default_state=UNDEFINED
eventq_index=0
leaders=
possible_states=

[system.cpu05]
type=GarnetSyntheticTraffic
children=power_state
block_offset=6
clk_domain=system.clk_domain
eventq_index=0
inj_rate=0.5
inj_vnet=-1
memory_size=65536
num_dest=16
num_packets_max=-1
power_model=
power_state=system.cpu05.power_state
precision=3
response_limit=5000000
sim_cycles=20000
single_dest=-1
single_sender=-1
system=system
traffic_type=uniform_random
test=system.ruby.l1_cntrl5.sequencer.slave[0]

[system.cpu05.power_state]
type=PowerState
clk_gate_bins=20
clk_gate_max=1000000000000
clk_gate_min=1000
default_state=UNDEFINED
eventq_index=0
leaders=
possible_states=

[system.cpu06]
type=GarnetSyntheticTraffic
children=power_state
block_offset=6
clk_domain=system.clk_domain
eventq_index=0
inj_rate=0.5
inj_vnet=-1
memory_size=65536
num_dest=16
num_packets_max=-1
power_model=
power_state=system.cpu06.power_state
precision=3
response_limit=5000000
sim_cycles=20000
single_dest=-1
single_sender=-1
system=system
traffic_type=uniform_random
test=system.ruby.l1_cntrl6.sequencer.slave[0]

[system.cpu06.power_state]
type=PowerState
clk_gate_bins=20
clk_gate_max=1000000000000
clk_gate_min=1000
default_state=UNDEFINED
eventq_index=0
leaders=
possible_states=

[system.cpu07]
type=GarnetSyntheticTraffic
children=power_state
block_offset=6
clk_domain=system.clk_domain
eventq_index=0
inj_rate=0.5
inj_vnet=-1
memory_size=65536
num_dest=16
num_packets_max=-1
power_model=
power_state=system.cpu07.power_state
precision=3
response_limit=5000000
sim_cycles=20000
single_dest=-1
single_sender=-1
system=system
traffic_type=uniform_random
test=system.ruby.l1_cntrl7.sequencer.slave[0]

[system.cpu07.power_state]
type=PowerState
clk_gate_bins=20
clk_gate_max=1000000000000
clk_gate_min=1000
default_state=UNDEFINED
eventq_index=0
leaders=
possible_states=

[system.cpu08]
type=GarnetSyntheticTraffic
children=power_state
block_offset=6
clk_domain=system.clk_domain
eventq_index=0
inj_rate=0.5
inj_vnet=-1
memory_size=65536
num_dest=16
num_packets_max=-1
power_model=
power_state=system.cpu08.power_state
precision=3
response_limit=5000000
sim_cycles=20000
single_dest=-1
single_sender=-1
system=system
traffic_type=uniform_random
test=system.ruby.l1_cntrl8.sequencer.slave[0]

[system.cpu08.power_state]
type=PowerState
clk_gate_bins=20
clk_gate_max=1000000000000
clk_gate_min=1000
default_state=UNDEFINED
eventq_index=0
leaders=
possible_states=

[system.cpu09]
type=GarnetSyntheticTraffic
children=power_state
block_offset=6
clk_domain=system.clk_domain
eventq_index=0
inj_rate=0.5
inj_vnet=-1
memory_size=65536
num_dest=16
num_packets_max=-1
power_model=
power_state=system.cpu09.power_state
precision=3
response_limit=5000000
sim_cycles=20000
single_dest=-1
single_sender=-1
system=system
traffic_type=uniform_random
test=system.ruby.l1_cntrl9.sequencer.slave[0]

[system.cpu09.power_state]
type=PowerState
clk_gate_bins=20
clk_gate_max=1000000000000
clk_gate_min=1000
default_state=UNDEFINED
eventq_index=0
leaders=
possible_states=

[system.cpu10]
type=GarnetSyntheticTraffic
children=power_state
block_offset=6
clk_domain=system.clk_domain
eventq_index=0
inj_rate=0.5
inj_vnet=-1
memory_size=65536
num_dest=16
num_packets_max=-1
power_model=
power_state=system.cpu10.power_state
precision=3
response_limit=5000000
sim_cycles=20000
single_dest=-1
single_sender=-1
system=system
traffic_type=uniform_random
test=system.ruby.l1_cntrl10.sequencer.slave[0]

[system.cpu10.power_state]
type=PowerState
clk_gate_bins=20
clk_gate_max=1000000000000
clk_gate_min=1000
default_state=UNDEFINED
eventq_index=0
leaders=
possible_states=

[system.cpu11]
type=GarnetSyntheticTraffic
children=power_state
block_offset=6
clk_domain=system.clk_domain
eventq_index=0
inj_rate=0.5
inj_vnet=-1
memory_size=65536
num_dest=16
num_packets_max=-1
power_model=
power_state=system.cpu11.power_state
precision=3
response_limit=5000000
sim_cycles=20000
single_dest=-1
single_sender=-1
system=system
traffic_type=uniform_random
test=system.ruby.l1_cntrl11.sequencer.slave[0]

[system.cpu11.power_state]
type=PowerState
clk_gate_bins=20
clk_gate_max=1000000000000
clk_gate_min=1000
default_state=UNDEFINED
eventq_index=0
leaders=
possible_states=

[system.cpu12]
type=GarnetSyntheticTraffic
children=power_state
block_offset=6
clk_domain=system.clk_domain
eventq_index=0
inj_rate=0.5
inj_vnet=-1
memory_size=65536
num_dest=16
num_packets_max=-1
power_model=
power_state=system.cpu12.power_state
precision=3
response_limit=5000000
sim_cycles=20000
single_dest=-1
single_sender=-1
system=system
traffic_type=uniform_random
test=system.ruby.l1_cntrl12.sequencer.slave[0]

[system.cpu12.power_state]
type=PowerState
clk_gate_bins=20
clk_gate_max=1000000000000
clk_gate_min=1000
default_state=UNDEFINED
eventq_index=0
leaders=
possible_states=

[system.cpu13]
type=GarnetSyntheticTraffic
children=power_state
block_offset=6
clk_domain=system.clk_domain
eventq_index=0
inj_rate=0.5
inj_vnet=-1
memory_size=65536
num_dest=16
num_packets_max=-1
power_model=
power_state=system.cpu13.power_state
precision=3
response_limit=5000000
sim_cycles=20000
single_dest=-1
single_sender=-1
system=system
traffic_type=uniform_random
test=system.ruby.l1_cntrl13.sequencer.slave[0]

[system.cpu13.power_state]
type=PowerState
clk_gate_bins=20
clk_gate_max=1000000000000
clk_gate_min=1000
default_state=UNDEFINED
eventq_index=0
leaders=
possible_states=

[system.cpu14]
type=GarnetSyntheticTraffic
children=power_state
block_offset=6
clk_domain=system.clk_domain
eventq_index=0
inj_rate=0.5
inj_vnet=-1
memory_size=65536
num_dest=16
num_packets_max=-1
power_model=
power_state=system.cpu14.power_state
precision=3
response_limit=5000000
sim_cycles=20000
single_dest=-1
single_sender=-1
system=system
traffic_type=uniform_random
test=system.ruby.l1_cntrl14.sequencer.slave[0]

[system.cpu14.power_state]
type=PowerState
clk_gate_bins=20
clk_gate_max=1000000000000
clk_gate_min=1000
default_state=UNDEFINED
eventq_index=0
leaders=
possible_states=

[system.cpu15]
type=GarnetSyntheticTraffic
children=power_state
block_offset=6
clk_domain=system.clk_domain
eventq_index=0
inj_rate=0.5
inj_vnet=-1
memory_size=65536
num_dest=16
num_packets_max=-1
power_model=
power_state=system.cpu15.power_state
precision=3
response_limit=5000000
sim_cycles=20000
single_dest=-1
single_sender=-1
system=system
traffic_type=uniform_random
test=system.ruby.l1_cntrl15.sequencer.slave[0]

[system.cpu15.power_state]
type=PowerState
clk_gate_bins=20
clk_gate_max=1000000000000
clk_gate_min=1000
default_state=UNDEFINED
eventq_index=0
leaders=
possible_states=

[system.cpu16]
type=GarnetSyntheticTraffic
children=power_state
block_offset=6
clk_domain=system.clk_domain
eventq_index=0
inj_rate=0.5
inj_vnet=-1
memory_size=65536
num_dest=16
num_packets_max=-1
power_model=
power_state=system.cpu16.power_state
precision=3
response_limit=5000000
sim_cycles=20000
single_dest=-1
single_sender=-1
system=system
traffic_type=uniform_random
test=system.ruby.l1_cntrl16.sequencer.slave[0]

[system.cpu16.power_state]
type=PowerState
clk_gate_bins=20
clk_gate_max=1000000000000
clk_gate_min=1000
default_state=UNDEFINED
eventq_index=0
leaders=
possible_states=

[system.cpu17]
type=GarnetSyntheticTraffic
children=power_state
block_offset=6
clk_domain=system.clk_domain
eventq_index=0
inj_rate=0.5
inj_vnet=-1
memory_size=65536
num_dest=16
num_packets_max=-1
power_model=
power_state=system.cpu17.power_state
precision=3
response_limit=5000000
sim_cycles=20000
single_dest=-1
single_sender=-1
system=system
traffic_type=uniform_random
test=system.ruby.l1_cntrl17.sequencer.slave[0]

[system.cpu17.power_state]
type=PowerState
clk_gate_bins=20
clk_gate_max=1000000000000
clk_gate_min=1000
default_state=UNDEFINED
eventq_index=0
leaders=
possible_states=

[system.cpu18]
type=GarnetSyntheticTraffic
children=power_state
block_offset=6
clk_domain=system.clk_domain
eventq_index=0
inj_rate=0.5
inj_vnet=-1
memory_size=65536
num_dest=16
num_packets_max=-1
power_model=
power_state=system.cpu18.power_state
precision=3
response_limit=5000000
sim_cycles=20000
single_dest=-1
single_sender=-1
system=system
traffic_type=uniform_random
test=system.ruby.l1_cntrl18.sequencer.slave[0]

[system.cpu18.power_state]
type=PowerState
clk_gate_bins=20
clk_gate_max=1000000000000
clk_gate_min=1000
default_state=UNDEFINED
eventq_index=0
leaders=
possible_states=

[system.cpu19]
type=GarnetSyntheticTraffic
children=power_state
block_offset=6
clk_domain=system.clk_domain
eventq_index=0
inj_rate=0.5
inj_vnet=-1
memory_size=65536
num_dest=16
num_packets_max=-1
power_model=
power_state=system.cpu19.power_state
precision=3
response_limit=5000000
sim_cycles=20000
single_dest=-1
single_sender=-1
system=system
traffic_type=uniform_random
test=system.ruby.l1_cntrl19.sequencer.slave[0]

[system.cpu19.power_state]
type=PowerState
clk_gate_bins=20
clk_gate_max=1000000000000
clk_gate_min=1000
default_state=UNDEFINED
eventq_index=0
leaders=
possible_states=

[system.cpu20]
type=GarnetSyntheticTraffic
children=power_state
block_offset=6
clk_domain=system.clk_domain
eventq_index=0
inj_rate=0.5
inj_vnet=-1
memory_size=65536
num_dest=16
num_packets_max=-1
power_model=
power_state=system.cpu20.power_state
precision=3
response_limit=5000000
sim_cycles=20000
single_dest=-1
single_sender=-1
system=system
traffic_type=uniform_random
test=system.ruby.l1_cntrl20.sequencer.slave[0]

[system.cpu20.power_state]
type=PowerState
clk_gate_bins=20
clk_gate_max=1000000000000
clk_gate_min=1000
default_state=UNDEFINED
eventq_index=0
leaders=
possible_states=

[system.cpu21]
type=GarnetSyntheticTraffic
children=power_state
block_offset=6
clk_domain=system.clk_domain
eventq_index=0
inj_rate=0.5
inj_vnet=-1
memory_size=65536
num_dest=16
num_packets_max=-1
power_model=
power_state=system.cpu21.power_state
precision=3
response_limit=5000000
sim_cycles=20000
single_dest=-1
single_sender=-1
system=system
traffic_type=uniform_random
test=system.ruby.l1_cntrl21.sequencer.slave[0]

[system.cpu21.power_state]
type=PowerState
clk_gate_bins=20
clk_gate_max=1000000000000
clk_gate_min=1000
default_state=UNDEFINED
eventq_index=0
leaders=
possible_states=

[system.cpu22]
type=GarnetSyntheticTraffic
children=power_state
block_offset=6
clk_domain=system.clk_domain
eventq_index=0
inj_rate=0.5
inj_vnet=-1
memory_size=65536
num_dest=16
num_packets_max=-1
power_model=
power_state=system.cpu22.power_state
precision=3
response_limit=5000000
sim_cycles=20000
single_dest=-1
single_sender=-1
system=system
traffic_type=uniform_random
test=system.ruby.l1_cntrl22.sequencer.slave[0]

[system.cpu22.power_state]
type=PowerState
clk_gate_bins=20
clk_gate_max=1000000000000
clk_gate_min=1000
default_state=UNDEFINED
eventq_index=0
leaders=
possible_states=

[system.cpu23]
type=GarnetSyntheticTraffic
children=power_state
block_offset=6
clk_domain=system.clk_domain
eventq_index=0
inj_rate=0.5
inj_vnet=-1
memory_size=65536
num_dest=16
num_packets_max=-1
power_model=
power_state=system.cpu23.power_state
precision=3
response_limit=5000000
sim_cycles=20000
single_dest=-1
single_sender=-1
system=system
traffic_type=uniform_random
test=system.ruby.l1_cntrl23.sequencer.slave[0]

[system.cpu23.power_state]
type=PowerState
clk_gate_bins=20
clk_gate_max=1000000000000
clk_gate_min=1000
default_state=UNDEFINED
eventq_index=0
leaders=
possible_states=

[system.cpu24]
type=GarnetSyntheticTraffic
children=power_state
block_offset=6
clk_domain=system.clk_domain
eventq_index=0
inj_rate=0.5
inj_vnet=-1
memory_size=65536
num_dest=16
num_packets_max=-1
power_model=
power_state=system.cpu24.power_state
precision=3
response_limit=5000000
sim_cycles=20000
single_dest=-1
single_sender=-1
system=system
traffic_type=uniform_random
test=system.ruby.l1_cntrl24.sequencer.slave[0]

[system.cpu24.power_state]
type=PowerState
clk_gate_bins=20
clk_gate_max=1000000000000
clk_gate_min=1000
default_state=UNDEFINED
eventq_index=0
leaders=
possible_states=

[system.cpu25]
type=GarnetSyntheticTraffic
children=power_state
block_offset=6
clk_domain=system.clk_domain
eventq_index=0
inj_rate=0.5
inj_vnet=-1
memory_size=65536
num_dest=16
num_packets_max=-1
power_model=
power_state=system.cpu25.power_state
precision=3
response_limit=5000000
sim_cycles=20000
single_dest=-1
single_sender=-1
system=system
traffic_type=uniform_random
test=system.ruby.l1_cntrl25.sequencer.slave[0]

[system.cpu25.power_state]
type=PowerState
clk_gate_bins=20
clk_gate_max=1000000000000
clk_gate_min=1000
default_state=UNDEFINED
eventq_index=0
leaders=
possible_states=

[system.cpu26]
type=GarnetSyntheticTraffic
children=power_state
block_offset=6
clk_domain=system.clk_domain
eventq_index=0
inj_rate=0.5
inj_vnet=-1
memory_size=65536
num_dest=16
num_packets_max=-1
power_model=
power_state=system.cpu26.power_state
precision=3
response_limit=5000000
sim_cycles=20000
single_dest=-1
single_sender=-1
system=system
traffic_type=uniform_random
test=system.ruby.l1_cntrl26.sequencer.slave[0]

[system.cpu26.power_state]
type=PowerState
clk_gate_bins=20
clk_gate_max=1000000000000
clk_gate_min=1000
default_state=UNDEFINED
eventq_index=0
leaders=
possible_states=

[system.cpu27]
type=GarnetSyntheticTraffic
children=power_state
block_offset=6
clk_domain=system.clk_domain
eventq_index=0
inj_rate=0.5
inj_vnet=-1
memory_size=65536
num_dest=16
num_packets_max=-1
power_model=
power_state=system.cpu27.power_state
precision=3
response_limit=5000000
sim_cycles=20000
single_dest=-1
single_sender=-1
system=system
traffic_type=uniform_random
test=system.ruby.l1_cntrl27.sequencer.slave[0]

[system.cpu27.power_state]
type=PowerState
clk_gate_bins=20
clk_gate_max=1000000000000
clk_gate_min=1000
default_state=UNDEFINED
eventq_index=0
leaders=
possible_states=

[system.cpu28]
type=GarnetSyntheticTraffic
children=power_state
block_offset=6
clk_domain=system.clk_domain
eventq_index=0
inj_rate=0.5
inj_vnet=-1
memory_size=65536
num_dest=16
num_packets_max=-1
power_model=
power_state=system.cpu28.power_state
precision=3
response_limit=5000000
sim_cycles=20000
single_dest=-1
single_sender=-1
system=system
traffic_type=uniform_random
test=system.ruby.l1_cntrl28.sequencer.slave[0]

[system.cpu28.power_state]
type=PowerState
clk_gate_bins=20
clk_gate_max=1000000000000
clk_gate_min=1000
default_state=UNDEFINED
eventq_index=0
leaders=
possible_states=

[system.cpu29]
type=GarnetSyntheticTraffic
children=power_state
block_offset=6
clk_domain=system.clk_domain
eventq_index=0
inj_rate=0.5
inj_vnet=-1
memory_size=65536
num_dest=16
num_packets_max=-1
power_model=
power_state=system.cpu29.power_state
precision=3
response_limit=5000000
sim_cycles=20000
single_dest=-1
single_sender=-1
system=system
traffic_type=uniform_random
test=system.ruby.l1_cntrl29.sequencer.slave[0]

[system.cpu29.power_state]
type=PowerState
clk_gate_bins=20
clk_gate_max=1000000000000
clk_gate_min=1000
default_state=UNDEFINED
eventq_index=0
leaders=
possible_states=

[system.cpu30]
type=GarnetSyntheticTraffic
children=power_state
block_offset=6
clk_domain=system.clk_domain
eventq_index=0
inj_rate=0.5
inj_vnet=-1
memory_size=65536
num_dest=16
num_packets_max=-1
power_model=
power_state=system.cpu30.power_state
precision=3
response_limit=5000000
sim_cycles=20000
single_dest=-1
single_sender=-1
system=system
traffic_type=uniform_random
test=system.ruby.l1_cntrl30.sequencer.slave[0]

[system.cpu30.power_state]
type=PowerState
clk_gate_bins=20
clk_gate_max=1000000000000
clk_gate_min=1000
default_state=UNDEFINED
eventq_index=0
leaders=
possible_states=

[system.cpu31]
type=GarnetSyntheticTraffic
children=power_state
block_offset=6
clk_domain=system.clk_domain
eventq_index=0
inj_rate=0.5
inj_vnet=-1
memory_size=65536
num_dest=16
num_packets_max=-1
power_model=
power_state=system.cpu31.power_state
precision=3
response_limit=5000000
sim_cycles=20000
single_dest=-1
single_sender=-1
system=system
traffic_type=uniform_random
test=system.ruby.l1_cntrl31.sequencer.slave[0]

[system.cpu31.power_state]
type=PowerState
clk_gate_bins=20
clk_gate_max=1000000000000
clk_gate_min=1000
default_state=UNDEFINED
eventq_index=0
leaders=
possible_states=

[system.cpu32]
type=GarnetSyntheticTraffic
children=power_state
block_offset=6
clk_domain=system.clk_domain
eventq_index=0
inj_rate=0.5
inj_vnet=-1
memory_size=65536
num_dest=16
num_packets_max=-1
power_model=
power_state=system.cpu32.power_state
precision=3
response_limit=5000000
sim_cycles=20000
single_dest=-1
single_sender=-1
system=system
traffic_type=uniform_random
test=system.ruby.l1_cntrl32.sequencer.slave[0]

[system.cpu32.power_state]
type=PowerState
clk_gate_bins=20
clk_gate_max=1000000000000
clk_gate_min=1000
default_state=UNDEFINED
eventq_index=0
leaders=
possible_states=

[system.cpu33]
type=GarnetSyntheticTraffic
children=power_state
block_offset=6
clk_domain=system.clk_domain
eventq_index=0
inj_rate=0.5
inj_vnet=-1
memory_size=65536
num_dest=16
num_packets_max=-1
power_model=
power_state=system.cpu33.power_state
precision=3
response_limit=5000000
sim_cycles=20000
single_dest=-1
single_sender=-1
system=system
traffic_type=uniform_random
test=system.ruby.l1_cntrl33.sequencer.slave[0]

[system.cpu33.power_state]
type=PowerState
clk_gate_bins=20
clk_gate_max=1000000000000
clk_gate_min=1000
default_state=UNDEFINED
eventq_index=0
leaders=
possible_states=

[system.cpu34]
type=GarnetSyntheticTraffic
children=power_state
block_offset=6
clk_domain=system.clk_domain
eventq_index=0
inj_rate=0.5
inj_vnet=-1
memory_size=65536
num_dest=16
num_packets_max=-1
power_model=
power_state=system.cpu34.power_state
precision=3
response_limit=5000000
sim_cycles=20000
single_dest=-1
single_sender=-1
system=system
traffic_type=uniform_random
test=system.ruby.l1_cntrl34.sequencer.slave[0]

[system.cpu34.power_state]
type=PowerState
clk_gate_bins=20
clk_gate_max=1000000000000
clk_gate_min=1000
default_state=UNDEFINED
eventq_index=0
leaders=
possible_states=

[system.cpu35]
type=GarnetSyntheticTraffic
children=power_state
block_offset=6
clk_domain=system.clk_domain
eventq_index=0
inj_rate=0.5
inj_vnet=-1
memory_size=65536
num_dest=16
num_packets_max=-1
power_model=
power_state=system.cpu35.power_state
precision=3
response_limit=5000000
sim_cycles=20000
single_dest=-1
single_sender=-1
system=system
traffic_type=uniform_random
test=system.ruby.l1_cntrl35.sequencer.slave[0]

[system.cpu35.power_state]
type=PowerState
clk_gate_bins=20
clk_gate_max=1000000000000
clk_gate_min=1000
default_state=UNDEFINED
eventq_index=0
leaders=
possible_states=

[system.cpu36]
type=GarnetSyntheticTraffic
children=power_state
block_offset=6
clk_domain=system.clk_domain
eventq_index=0
inj_rate=0.5
inj_vnet=-1
memory_size=65536
num_dest=16
num_packets_max=-1
power_model=
power_state=system.cpu36.power_state
precision=3
response_limit=5000000
sim_cycles=20000
single_dest=-1
single_sender=-1
system=system
traffic_type=uniform_random
test=system.ruby.l1_cntrl36.sequencer.slave[0]

[system.cpu36.power_state]
type=PowerState
clk_gate_bins=20
clk_gate_max=1000000000000
clk_gate_min=1000
default_state=UNDEFINED
eventq_index=0
leaders=
possible_states=

[system.cpu37]
type=GarnetSyntheticTraffic
children=power_state
block_offset=6
clk_domain=system.clk_domain
eventq_index=0
inj_rate=0.5
inj_vnet=-1
memory_size=65536
num_dest=16
num_packets_max=-1
power_model=
power_state=system.cpu37.power_state
precision=3
response_limit=5000000
sim_cycles=20000
single_dest=-1
single_sender=-1
system=system
traffic_type=uniform_random
test=system.ruby.l1_cntrl37.sequencer.slave[0]

[system.cpu37.power_state]
type=PowerState
clk_gate_bins=20
clk_gate_max=1000000000000
clk_gate_min=1000
default_state=UNDEFINED
eventq_index=0
leaders=
possible_states=

[system.cpu38]
type=GarnetSyntheticTraffic
children=power_state
block_offset=6
clk_domain=system.clk_domain
eventq_index=0
inj_rate=0.5
inj_vnet=-1
memory_size=65536
num_dest=16
num_packets_max=-1
power_model=
power_state=system.cpu38.power_state
precision=3
response_limit=5000000
sim_cycles=20000
single_dest=-1
single_sender=-1
system=system
traffic_type=uniform_random
test=system.ruby.l1_cntrl38.sequencer.slave[0]

[system.cpu38.power_state]
type=PowerState
clk_gate_bins=20
clk_gate_max=1000000000000
clk_gate_min=1000
default_state=UNDEFINED
eventq_index=0
leaders=
possible_states=

[system.cpu39]
type=GarnetSyntheticTraffic
children=power_state
block_offset=6
clk_domain=system.clk_domain
eventq_index=0
inj_rate=0.5
inj_vnet=-1
memory_size=65536
num_dest=16
num_packets_max=-1
power_model=
power_state=system.cpu39.power_state
precision=3
response_limit=5000000
sim_cycles=20000
single_dest=-1
single_sender=-1
system=system
traffic_type=uniform_random
test=system.ruby.l1_cntrl39.sequencer.slave[0]

[system.cpu39.power_state]
type=PowerState
clk_gate_bins=20
clk_gate_max=1000000000000
clk_gate_min=1000
default_state=UNDEFINED
eventq_index=0
leaders=
possible_states=

[system.cpu40]
type=GarnetSyntheticTraffic
children=power_state
block_offset=6
clk_domain=system.clk_domain
eventq_index=0
inj_rate=0.5
inj_vnet=-1
memory_size=65536
num_dest=16
num_packets_max=-1
power_model=
power_state=system.cpu40.power_state
precision=3
response_limit=5000000
sim_cycles=20000
single_dest=-1
single_sender=-1
system=system
traffic_type=uniform_random
test=system.ruby.l1_cntrl40.sequencer.slave[0]

[system.cpu40.power_state]
type=PowerState
clk_gate_bins=20
clk_gate_max=1000000000000
clk_gate_min=1000
default_state=UNDEFINED
eventq_index=0
leaders=
possible_states=

[system.cpu41]
type=GarnetSyntheticTraffic
children=power_state
block_offset=6
clk_domain=system.clk_domain
eventq_index=0
inj_rate=0.5
inj_vnet=-1
memory_size=65536
num_dest=16
num_packets_max=-1
power_model=
power_state=system.cpu41.power_state
precision=3
response_limit=5000000
sim_cycles=20000
single_dest=-1
single_sender=-1
system=system
traffic_type=uniform_random
test=system.ruby.l1_cntrl41.sequencer.slave[0]

[system.cpu41.power_state]
type=PowerState
clk_gate_bins=20
clk_gate_max=1000000000000
clk_gate_min=1000
default_state=UNDEFINED
eventq_index=0
leaders=
possible_states=

[system.cpu42]
type=GarnetSyntheticTraffic
children=power_state
block_offset=6
clk_domain=system.clk_domain
eventq_index=0
inj_rate=0.5
inj_vnet=-1
memory_size=65536
num_dest=16
num_packets_max=-1
power_model=
power_state=system.cpu42.power_state
precision=3
response_limit=5000000
sim_cycles=20000
single_dest=-1
single_sender=-1
system=system
traffic_type=uniform_random
test=system.ruby.l1_cntrl42.sequencer.slave[0]

[system.cpu42.power_state]
type=PowerState
clk_gate_bins=20
clk_gate_max=1000000000000
clk_gate_min=1000
default_state=UNDEFINED
eventq_index=0
leaders=
possible_states=

[system.cpu43]
type=GarnetSyntheticTraffic
children=power_state
block_offset=6
clk_domain=system.clk_domain
eventq_index=0
inj_rate=0.5
inj_vnet=-1
memory_size=65536
num_dest=16
num_packets_max=-1
power_model=
power_state=system.cpu43.power_state
precision=3
response_limit=5000000
sim_cycles=20000
single_dest=-1
single_sender=-1
system=system
traffic_type=uniform_random
test=system.ruby.l1_cntrl43.sequencer.slave[0]

[system.cpu43.power_state]
type=PowerState
clk_gate_bins=20
clk_gate_max=1000000000000
clk_gate_min=1000
default_state=UNDEFINED
eventq_index=0
leaders=
possible_states=

[system.cpu44]
type=GarnetSyntheticTraffic
children=power_state
block_offset=6
clk_domain=system.clk_domain
eventq_index=0
inj_rate=0.5
inj_vnet=-1
memory_size=65536
num_dest=16
num_packets_max=-1
power_model=
power_state=system.cpu44.power_state
precision=3
response_limit=5000000
sim_cycles=20000
single_dest=-1
single_sender=-1
system=system
traffic_type=uniform_random
test=system.ruby.l1_cntrl44.sequencer.slave[0]

[system.cpu44.power_state]
type=PowerState
clk_gate_bins=20
clk_gate_max=1000000000000
clk_gate_min=1000
default_state=UNDEFINED
eventq_index=0
leaders=
possible_states=

[system.cpu45]
type=GarnetSyntheticTraffic
children=power_state
block_offset=6
clk_domain=system.clk_domain
eventq_index=0
inj_rate=0.5
inj_vnet=-1
memory_size=65536
num_dest=16
num_packets_max=-1
power_model=
power_state=system.cpu45.power_state
precision=3
response_limit=5000000
sim_cycles=20000
single_dest=-1
single_sender=-1
system=system
traffic_type=uniform_random
test=system.ruby.l1_cntrl45.sequencer.slave[0]

[system.cpu45.power_state]
type=PowerState
clk_gate_bins=20
clk_gate_max=1000000000000
clk_gate_min=1000
default_state=UNDEFINED
eventq_index=0
leaders=
possible_states=

[system.cpu46]
type=GarnetSyntheticTraffic
children=power_state
block_offset=6
clk_domain=system.clk_domain
eventq_index=0
inj_rate=0.5
inj_vnet=-1
memory_size=65536
num_dest=16
num_packets_max=-1
power_model=
power_state=system.cpu46.power_state
precision=3
response_limit=5000000
sim_cycles=20000
single_dest=-1
single_sender=-1
system=system
traffic_type=uniform_random
test=system.ruby.l1_cntrl46.sequencer.slave[0]

[system.cpu46.power_state]
type=PowerState
clk_gate_bins=20
clk_gate_max=1000000000000
clk_gate_min=1000
default_state=UNDEFINED
eventq_index=0
leaders=
possible_states=

[system.cpu47]
type=GarnetSyntheticTraffic
children=power_state
block_offset=6
clk_domain=system.clk_domain
eventq_index=0
inj_rate=0.5
inj_vnet=-1
memory_size=65536
num_dest=16
num_packets_max=-1
power_model=
power_state=system.cpu47.power_state
precision=3
response_limit=5000000
sim_cycles=20000